<?xml version="1.0" encoding="UTF-8"?>

<!-- generated on 2025-11-02 10:02:37 by Eclipse SUMO duarouter Version 1.24.0
<duarouterConfiguration xmlns:xsi="http://www.w3.org/2001/XMLSchema-instance" xsi:noNamespaceSchemaLocation="http://sumo.dlr.de/xsd/duarouterConfiguration.xsd">

    <input>
        <net-file value="test.net.xml"/>
        <route-files value="svnit_flows.trips.xml"/>
    </input>

    <output>
        <output-file value="svnit_traffic.rou.xml"/>
    </output>

</duarouterConfiguration>
-->

<routes xmlns:xsi="http://www.w3.org/2001/XMLSchema-instance" xsi:noNamespaceSchemaLocation="http://sumo.dlr.de/xsd/routes_file.xsd">
    <vType id="car" length="5.00" minGap="2.50" maxSpeed="50.00" vClass="passenger" guiShape="passenger" accel="2.6" decel="4.5" sigma="0.5"/>
    <vehicle id="flow_main_cars.0" type="car" depart="0.00" departLane="best" departSpeed="max">
        <route edges="761955902#2 761955902#3 150694716#12 150694716#0 150694716#1 150694716#2 150694716#3 150694716#4 704227856#0"/>
    </vehicle>
    <vType id="motorcycle" length="2.50" minGap="1.00" maxSpeed="60.00" vClass="motorcycle" guiShape="motorcycle" accel="3.5" decel="5.0" sigma="0.5"/>
    <vehicle id="flow_turning_bikes.0" type="motorcycle" depart="0.00" departLane="best" departSpeed="max">
        <route edges="527057142 150694716#6 150694716#7 150694716#8 150694716#9 150694716#10 34135098#0 34135098#1"/>
    </vehicle>
    <vehicle id="flow_side_road_bikes.0" type="motorcycle" depart="0.00" departLane="best" departSpeed="max">
        <route edges="761955902#2 761955902#3 150694716#12 150694716#0 150694716#1 1058767099"/>
    </vehicle>
    <vehicle id="flow_main_cars.1" type="car" depart="9.00" departLane="best" departSpeed="max">
        <route edges="761955902#2 761955902#3 150694716#12 150694716#0 150694716#1 150694716#2 150694716#3 150694716#4 704227856#0"/>
    </vehicle>
    <vehicle id="flow_side_road_bikes.1" type="motorcycle" depart="12.00" departLane="best" departSpeed="max">
        <route edges="761955902#2 761955902#3 150694716#12 150694716#0 150694716#1 1058767099"/>
    </vehicle>
    <vehicle id="flow_main_cars.2" type="car" depart="18.00" departLane="best" departSpeed="max">
        <route edges="761955902#2 761955902#3 150694716#12 150694716#0 150694716#1 150694716#2 150694716#3 150694716#4 704227856#0"/>
    </vehicle>
    <vehicle id="flow_turning_bikes.1" type="motorcycle" depart="18.00" departLane="best" departSpeed="max">
        <route edges="527057142 150694716#6 150694716#7 150694716#8 150694716#9 150694716#10 34135098#0 34135098#1"/>
    </vehicle>
    <vehicle id="flow_side_road_bikes.2" type="motorcycle" depart="24.00" departLane="best" departSpeed="max">
        <route edges="761955902#2 761955902#3 150694716#12 150694716#0 150694716#1 1058767099"/>
    </vehicle>
    <vehicle id="flow_main_cars.3" type="car" depart="27.00" departLane="best" departSpeed="max">
        <route edges="761955902#2 761955902#3 150694716#12 150694716#0 150694716#1 150694716#2 150694716#3 150694716#4 704227856#0"/>
    </vehicle>
    <vehicle id="flow_main_cars.4" type="car" depart="36.00" departLane="best" departSpeed="max">
        <route edges="761955902#2 761955902#3 150694716#12 150694716#0 150694716#1 150694716#2 150694716#3 150694716#4 704227856#0"/>
    </vehicle>
    <vehicle id="flow_side_road_bikes.3" type="motorcycle" depart="36.00" departLane="best" departSpeed="max">
        <route edges="761955902#2 761955902#3 150694716#12 150694716#0 150694716#1 1058767099"/>
    </vehicle>
    <vehicle id="flow_turning_bikes.2" type="motorcycle" depart="36.00" departLane="best" departSpeed="max">
        <route edges="527057142 150694716#6 150694716#7 150694716#8 150694716#9 150694716#10 34135098#0 34135098#1"/>
    </vehicle>
    <vehicle id="flow_main_cars.5" type="car" depart="45.00" departLane="best" departSpeed="max">
        <route edges="761955902#2 761955902#3 150694716#12 150694716#0 150694716#1 150694716#2 150694716#3 150694716#4 704227856#0"/>
    </vehicle>
    <vehicle id="flow_side_road_bikes.4" type="motorcycle" depart="48.00" departLane="best" departSpeed="max">
        <route edges="761955902#2 761955902#3 150694716#12 150694716#0 150694716#1 1058767099"/>
    </vehicle>
    <vType id="truck" length="12.00" minGap="3.00" maxSpeed="40.00" vClass="truck" guiShape="truck" accel="1.5" decel="3.5" sigma="0.5"/>
    <vehicle id="flow_main_trucks.0" type="truck" depart="50.00" departLane="best" departSpeed="max">
        <route edges="761955902#2 761955902#3 150694716#12 150694716#0 150694716#1 150694716#2 150694716#3 150694716#4 704227856#0"/>
    </vehicle>
    <vehicle id="flow_side_road_cars_1.0" type="car" depart="50.00" departLane="best" departSpeed="max">
        <route edges="761955902#2 761955902#3 150694716#12 150694716#0 150694716#1 1058767099"/>
    </vehicle>
    <vehicle id="flow_side_road_cars_2.0" type="car" depart="50.00" departLane="best" departSpeed="max">
        <route edges="761955902#2 761955902#3 150694716#12 150694716#0 150694716#1 1058767099"/>
    </vehicle>
    <vehicle id="flow_main_cars.6" type="car" depart="54.00" departLane="best" departSpeed="max">
        <route edges="761955902#2 761955902#3 150694716#12 150694716#0 150694716#1 150694716#2 150694716#3 150694716#4 704227856#0"/>
    </vehicle>
    <vehicle id="flow_turning_bikes.3" type="motorcycle" depart="54.00" departLane="best" departSpeed="max">
        <route edges="527057142 150694716#6 150694716#7 150694716#8 150694716#9 150694716#10 34135098#0 34135098#1"/>
    </vehicle>
    <vehicle id="flow_side_road_bikes.5" type="motorcycle" depart="60.00" departLane="best" departSpeed="max">
        <route edges="761955902#2 761955902#3 150694716#12 150694716#0 150694716#1 1058767099"/>
    </vehicle>
    <vehicle id="flow_main_cars.7" type="car" depart="63.00" departLane="best" departSpeed="max">
        <route edges="761955902#2 761955902#3 150694716#12 150694716#0 150694716#1 150694716#2 150694716#3 150694716#4 704227856#0"/>
    </vehicle>
    <vehicle id="flow_main_cars.8" type="car" depart="72.00" departLane="best" departSpeed="max">
        <route edges="761955902#2 761955902#3 150694716#12 150694716#0 150694716#1 150694716#2 150694716#3 150694716#4 704227856#0"/>
    </vehicle>
    <vehicle id="flow_side_road_bikes.6" type="motorcycle" depart="72.00" departLane="best" departSpeed="max">
        <route edges="761955902#2 761955902#3 150694716#12 150694716#0 150694716#1 1058767099"/>
    </vehicle>
    <vehicle id="flow_turning_bikes.4" type="motorcycle" depart="72.00" departLane="best" departSpeed="max">
        <route edges="527057142 150694716#6 150694716#7 150694716#8 150694716#9 150694716#10 34135098#0 34135098#1"/>
    </vehicle>
    <vehicle id="flow_side_road_cars_1.1" type="car" depart="74.00" departLane="best" departSpeed="max">
        <route edges="761955902#2 761955902#3 150694716#12 150694716#0 150694716#1 1058767099"/>
    </vehicle>
    <vehicle id="flow_side_road_cars_2.1" type="car" depart="74.00" departLane="best" departSpeed="max">
        <route edges="761955902#2 761955902#3 150694716#12 150694716#0 150694716#1 1058767099"/>
    </vehicle>
    <vehicle id="flow_main_cars.9" type="car" depart="81.00" departLane="best" departSpeed="max">
        <route edges="761955902#2 761955902#3 150694716#12 150694716#0 150694716#1 150694716#2 150694716#3 150694716#4 704227856#0"/>
    </vehicle>
    <vehicle id="flow_side_road_bikes.7" type="motorcycle" depart="84.00" departLane="best" departSpeed="max">
        <route edges="761955902#2 761955902#3 150694716#12 150694716#0 150694716#1 1058767099"/>
    </vehicle>
    <vehicle id="flow_main_cars.10" type="car" depart="90.00" departLane="best" departSpeed="max">
        <route edges="761955902#2 761955902#3 150694716#12 150694716#0 150694716#1 150694716#2 150694716#3 150694716#4 704227856#0"/>
    </vehicle>
    <vehicle id="flow_turning_bikes.5" type="motorcycle" depart="90.00" departLane="best" departSpeed="max">
        <route edges="527057142 150694716#6 150694716#7 150694716#8 150694716#9 150694716#10 34135098#0 34135098#1"/>
    </vehicle>
    <vehicle id="flow_side_road_bikes.8" type="motorcycle" depart="96.00" departLane="best" departSpeed="max">
        <route edges="761955902#2 761955902#3 150694716#12 150694716#0 150694716#1 1058767099"/>
    </vehicle>
    <vehicle id="flow_side_road_cars_1.2" type="car" depart="98.00" departLane="best" departSpeed="max">
        <route edges="761955902#2 761955902#3 150694716#12 150694716#0 150694716#1 1058767099"/>
    </vehicle>
    <vehicle id="flow_side_road_cars_2.2" type="car" depart="98.00" departLane="best" departSpeed="max">
        <route edges="761955902#2 761955902#3 150694716#12 150694716#0 150694716#1 1058767099"/>
    </vehicle>
    <vehicle id="flow_main_cars.11" type="car" depart="99.00" departLane="best" departSpeed="max">
        <route edges="761955902#2 761955902#3 150694716#12 150694716#0 150694716#1 150694716#2 150694716#3 150694716#4 704227856#0"/>
    </vehicle>
    <vType id="bus" length="15.00" minGap="3.00" maxSpeed="35.00" vClass="bus" guiShape="bus" accel="1.2" decel="3.0" sigma="0.5"/>
    <vehicle id="flow_turning_buses.0" type="bus" depart="100.00" departLane="best" departSpeed="max">
        <route edges="527057142 150694716#6 150694716#7 150694716#8 150694716#9 150694716#10 34135098#0 34135098#1"/>
    </vehicle>
    <vehicle id="flow_main_cars.12" type="car" depart="108.00" departLane="best" departSpeed="max">
        <route edges="761955902#2 761955902#3 150694716#12 150694716#0 150694716#1 150694716#2 150694716#3 150694716#4 704227856#0"/>
    </vehicle>
    <vehicle id="flow_side_road_bikes.9" type="motorcycle" depart="108.00" departLane="best" departSpeed="max">
        <route edges="761955902#2 761955902#3 150694716#12 150694716#0 150694716#1 1058767099"/>
    </vehicle>
    <vehicle id="flow_turning_bikes.6" type="motorcycle" depart="108.00" departLane="best" departSpeed="max">
        <route edges="527057142 150694716#6 150694716#7 150694716#8 150694716#9 150694716#10 34135098#0 34135098#1"/>
    </vehicle>
    <vehicle id="flow_main_cars.13" type="car" depart="117.00" departLane="best" departSpeed="max">
        <route edges="761955902#2 761955902#3 150694716#12 150694716#0 150694716#1 150694716#2 150694716#3 150694716#4 704227856#0"/>
    </vehicle>
    <vehicle id="flow_side_road_bikes.10" type="motorcycle" depart="120.00" departLane="best" departSpeed="max">
        <route edges="761955902#2 761955902#3 150694716#12 150694716#0 150694716#1 1058767099"/>
    </vehicle>
    <vehicle id="flow_main_trucks.1" type="truck" depart="122.00" departLane="best" departSpeed="max">
        <route edges="761955902#2 761955902#3 150694716#12 150694716#0 150694716#1 150694716#2 150694716#3 150694716#4 704227856#0"/>
    </vehicle>
    <vehicle id="flow_side_road_cars_1.3" type="car" depart="122.00" departLane="best" departSpeed="max">
        <route edges="761955902#2 761955902#3 150694716#12 150694716#0 150694716#1 1058767099"/>
    </vehicle>
    <vehicle id="flow_side_road_cars_2.3" type="car" depart="122.00" departLane="best" departSpeed="max">
        <route edges="761955902#2 761955902#3 150694716#12 150694716#0 150694716#1 1058767099"/>
    </vehicle>
    <vehicle id="flow_main_cars.14" type="car" depart="126.00" departLane="best" departSpeed="max">
        <route edges="761955902#2 761955902#3 150694716#12 150694716#0 150694716#1 150694716#2 150694716#3 150694716#4 704227856#0"/>
    </vehicle>
    <vehicle id="flow_turning_bikes.7" type="motorcycle" depart="126.00" departLane="best" departSpeed="max">
        <route edges="527057142 150694716#6 150694716#7 150694716#8 150694716#9 150694716#10 34135098#0 34135098#1"/>
    </vehicle>
    <vehicle id="flow_side_road_bikes.11" type="motorcycle" depart="132.00" departLane="best" departSpeed="max">
        <route edges="761955902#2 761955902#3 150694716#12 150694716#0 150694716#1 1058767099"/>
    </vehicle>
    <vehicle id="flow_main_cars.15" type="car" depart="135.00" departLane="best" departSpeed="max">
        <route edges="761955902#2 761955902#3 150694716#12 150694716#0 150694716#1 150694716#2 150694716#3 150694716#4 704227856#0"/>
    </vehicle>
    <vehicle id="flow_main_cars.16" type="car" depart="144.00" departLane="best" departSpeed="max">
        <route edges="761955902#2 761955902#3 150694716#12 150694716#0 150694716#1 150694716#2 150694716#3 150694716#4 704227856#0"/>
    </vehicle>
    <vehicle id="flow_side_road_bikes.12" type="motorcycle" depart="144.00" departLane="best" departSpeed="max">
        <route edges="761955902#2 761955902#3 150694716#12 150694716#0 150694716#1 1058767099"/>
    </vehicle>
    <vehicle id="flow_turning_bikes.8" type="motorcycle" depart="144.00" departLane="best" departSpeed="max">
        <route edges="527057142 150694716#6 150694716#7 150694716#8 150694716#9 150694716#10 34135098#0 34135098#1"/>
    </vehicle>
    <vehicle id="flow_side_road_cars_1.4" type="car" depart="146.00" departLane="best" departSpeed="max">
        <route edges="761955902#2 761955902#3 150694716#12 150694716#0 150694716#1 1058767099"/>
    </vehicle>
    <vehicle id="flow_side_road_cars_2.4" type="car" depart="146.00" departLane="best" departSpeed="max">
        <route edges="761955902#2 761955902#3 150694716#12 150694716#0 150694716#1 1058767099"/>
    </vehicle>
    <vehicle id="flow_main_cars.17" type="car" depart="153.00" departLane="best" departSpeed="max">
        <route edges="761955902#2 761955902#3 150694716#12 150694716#0 150694716#1 150694716#2 150694716#3 150694716#4 704227856#0"/>
    </vehicle>
    <vehicle id="flow_side_road_bikes.13" type="motorcycle" depart="156.00" departLane="best" departSpeed="max">
        <route edges="761955902#2 761955902#3 150694716#12 150694716#0 150694716#1 1058767099"/>
    </vehicle>
    <vehicle id="flow_main_cars.18" type="car" depart="162.00" departLane="best" departSpeed="max">
        <route edges="761955902#2 761955902#3 150694716#12 150694716#0 150694716#1 150694716#2 150694716#3 150694716#4 704227856#0"/>
    </vehicle>
    <vehicle id="flow_turning_bikes.9" type="motorcycle" depart="162.00" departLane="best" departSpeed="max">
        <route edges="527057142 150694716#6 150694716#7 150694716#8 150694716#9 150694716#10 34135098#0 34135098#1"/>
    </vehicle>
    <vehicle id="flow_side_road_bikes.14" type="motorcycle" depart="168.00" departLane="best" departSpeed="max">
        <route edges="761955902#2 761955902#3 150694716#12 150694716#0 150694716#1 1058767099"/>
    </vehicle>
    <vehicle id="flow_side_road_cars_1.5" type="car" depart="170.00" departLane="best" departSpeed="max">
        <route edges="761955902#2 761955902#3 150694716#12 150694716#0 150694716#1 1058767099"/>
    </vehicle>
    <vehicle id="flow_side_road_cars_2.5" type="car" depart="170.00" departLane="best" departSpeed="max">
        <route edges="761955902#2 761955902#3 150694716#12 150694716#0 150694716#1 1058767099"/>
    </vehicle>
    <vehicle id="flow_main_cars.19" type="car" depart="171.00" departLane="best" departSpeed="max">
        <route edges="761955902#2 761955902#3 150694716#12 150694716#0 150694716#1 150694716#2 150694716#3 150694716#4 704227856#0"/>
    </vehicle>
    <vehicle id="flow_main_cars.20" type="car" depart="180.00" departLane="best" departSpeed="max">
        <route edges="761955902#2 761955902#3 150694716#12 150694716#0 150694716#1 150694716#2 150694716#3 150694716#4 704227856#0"/>
    </vehicle>
    <vehicle id="flow_side_road_bikes.15" type="motorcycle" depart="180.00" departLane="best" departSpeed="max">
        <route edges="761955902#2 761955902#3 150694716#12 150694716#0 150694716#1 1058767099"/>
    </vehicle>
    <vehicle id="flow_turning_bikes.10" type="motorcycle" depart="180.00" departLane="best" departSpeed="max">
        <route edges="527057142 150694716#6 150694716#7 150694716#8 150694716#9 150694716#10 34135098#0 34135098#1"/>
    </vehicle>
    <vehicle id="flow_main_cars.21" type="car" depart="189.00" departLane="best" departSpeed="max">
        <route edges="761955902#2 761955902#3 150694716#12 150694716#0 150694716#1 150694716#2 150694716#3 150694716#4 704227856#0"/>
    </vehicle>
    <vehicle id="flow_side_road_bikes.16" type="motorcycle" depart="192.00" departLane="best" departSpeed="max">
        <route edges="761955902#2 761955902#3 150694716#12 150694716#0 150694716#1 1058767099"/>
    </vehicle>
    <vehicle id="flow_main_trucks.2" type="truck" depart="194.00" departLane="best" departSpeed="max">
        <route edges="761955902#2 761955902#3 150694716#12 150694716#0 150694716#1 150694716#2 150694716#3 150694716#4 704227856#0"/>
    </vehicle>
    <vehicle id="flow_side_road_cars_1.6" type="car" depart="194.00" departLane="best" departSpeed="max">
        <route edges="761955902#2 761955902#3 150694716#12 150694716#0 150694716#1 1058767099"/>
    </vehicle>
    <vehicle id="flow_side_road_cars_2.6" type="car" depart="194.00" departLane="best" departSpeed="max">
        <route edges="761955902#2 761955902#3 150694716#12 150694716#0 150694716#1 1058767099"/>
    </vehicle>
    <vehicle id="flow_main_cars.22" type="car" depart="198.00" departLane="best" departSpeed="max">
        <route edges="761955902#2 761955902#3 150694716#12 150694716#0 150694716#1 150694716#2 150694716#3 150694716#4 704227856#0"/>
    </vehicle>
    <vehicle id="flow_turning_bikes.11" type="motorcycle" depart="198.00" departLane="best" departSpeed="max">
        <route edges="527057142 150694716#6 150694716#7 150694716#8 150694716#9 150694716#10 34135098#0 34135098#1"/>
    </vehicle>
    <vehicle id="flow_side_road_bikes.17" type="motorcycle" depart="204.00" departLane="best" departSpeed="max">
        <route edges="761955902#2 761955902#3 150694716#12 150694716#0 150694716#1 1058767099"/>
    </vehicle>
    <vehicle id="flow_main_cars.23" type="car" depart="207.00" departLane="best" departSpeed="max">
        <route edges="761955902#2 761955902#3 150694716#12 150694716#0 150694716#1 150694716#2 150694716#3 150694716#4 704227856#0"/>
    </vehicle>
    <vehicle id="flow_main_cars.24" type="car" depart="216.00" departLane="best" departSpeed="max">
        <route edges="761955902#2 761955902#3 150694716#12 150694716#0 150694716#1 150694716#2 150694716#3 150694716#4 704227856#0"/>
    </vehicle>
    <vehicle id="flow_side_road_bikes.18" type="motorcycle" depart="216.00" departLane="best" departSpeed="max">
        <route edges="761955902#2 761955902#3 150694716#12 150694716#0 150694716#1 1058767099"/>
    </vehicle>
    <vehicle id="flow_turning_bikes.12" type="motorcycle" depart="216.00" departLane="best" departSpeed="max">
        <route edges="527057142 150694716#6 150694716#7 150694716#8 150694716#9 150694716#10 34135098#0 34135098#1"/>
    </vehicle>
    <vehicle id="flow_side_road_cars_1.7" type="car" depart="218.00" departLane="best" departSpeed="max">
        <route edges="761955902#2 761955902#3 150694716#12 150694716#0 150694716#1 1058767099"/>
    </vehicle>
    <vehicle id="flow_side_road_cars_2.7" type="car" depart="218.00" departLane="best" departSpeed="max">
        <route edges="761955902#2 761955902#3 150694716#12 150694716#0 150694716#1 1058767099"/>
    </vehicle>
    <vehicle id="flow_turning_buses.1" type="bus" depart="220.00" departLane="best" departSpeed="max">
        <route edges="527057142 150694716#6 150694716#7 150694716#8 150694716#9 150694716#10 34135098#0 34135098#1"/>
    </vehicle>
    <vehicle id="flow_main_cars.25" type="car" depart="225.00" departLane="best" departSpeed="max">
        <route edges="761955902#2 761955902#3 150694716#12 150694716#0 150694716#1 150694716#2 150694716#3 150694716#4 704227856#0"/>
    </vehicle>
    <vehicle id="flow_side_road_bikes.19" type="motorcycle" depart="228.00" departLane="best" departSpeed="max">
        <route edges="761955902#2 761955902#3 150694716#12 150694716#0 150694716#1 1058767099"/>
    </vehicle>
    <vehicle id="flow_main_cars.26" type="car" depart="234.00" departLane="best" departSpeed="max">
        <route edges="761955902#2 761955902#3 150694716#12 150694716#0 150694716#1 150694716#2 150694716#3 150694716#4 704227856#0"/>
    </vehicle>
    <vehicle id="flow_turning_bikes.13" type="motorcycle" depart="234.00" departLane="best" departSpeed="max">
        <route edges="527057142 150694716#6 150694716#7 150694716#8 150694716#9 150694716#10 34135098#0 34135098#1"/>
    </vehicle>
    <vehicle id="flow_side_road_bikes.20" type="motorcycle" depart="240.00" departLane="best" departSpeed="max">
        <route edges="761955902#2 761955902#3 150694716#12 150694716#0 150694716#1 1058767099"/>
    </vehicle>
    <vehicle id="flow_side_road_cars_1.8" type="car" depart="242.00" departLane="best" departSpeed="max">
        <route edges="761955902#2 761955902#3 150694716#12 150694716#0 150694716#1 1058767099"/>
    </vehicle>
    <vehicle id="flow_side_road_cars_2.8" type="car" depart="242.00" departLane="best" departSpeed="max">
        <route edges="761955902#2 761955902#3 150694716#12 150694716#0 150694716#1 1058767099"/>
    </vehicle>
    <vehicle id="flow_main_cars.27" type="car" depart="243.00" departLane="best" departSpeed="max">
        <route edges="761955902#2 761955902#3 150694716#12 150694716#0 150694716#1 150694716#2 150694716#3 150694716#4 704227856#0"/>
    </vehicle>
    <vehicle id="flow_main_cars.28" type="car" depart="252.00" departLane="best" departSpeed="max">
        <route edges="761955902#2 761955902#3 150694716#12 150694716#0 150694716#1 150694716#2 150694716#3 150694716#4 704227856#0"/>
    </vehicle>
    <vehicle id="flow_side_road_bikes.21" type="motorcycle" depart="252.00" departLane="best" departSpeed="max">
        <route edges="761955902#2 761955902#3 150694716#12 150694716#0 150694716#1 1058767099"/>
    </vehicle>
    <vehicle id="flow_turning_bikes.14" type="motorcycle" depart="252.00" departLane="best" departSpeed="max">
        <route edges="527057142 150694716#6 150694716#7 150694716#8 150694716#9 150694716#10 34135098#0 34135098#1"/>
    </vehicle>
    <vehicle id="flow_main_cars.29" type="car" depart="261.00" departLane="best" departSpeed="max">
        <route edges="761955902#2 761955902#3 150694716#12 150694716#0 150694716#1 150694716#2 150694716#3 150694716#4 704227856#0"/>
    </vehicle>
    <vehicle id="flow_side_road_bikes.22" type="motorcycle" depart="264.00" departLane="best" departSpeed="max">
        <route edges="761955902#2 761955902#3 150694716#12 150694716#0 150694716#1 1058767099"/>
    </vehicle>
    <vehicle id="flow_main_trucks.3" type="truck" depart="266.00" departLane="best" departSpeed="max">
        <route edges="761955902#2 761955902#3 150694716#12 150694716#0 150694716#1 150694716#2 150694716#3 150694716#4 704227856#0"/>
    </vehicle>
    <vehicle id="flow_side_road_cars_1.9" type="car" depart="266.00" departLane="best" departSpeed="max">
        <route edges="761955902#2 761955902#3 150694716#12 150694716#0 150694716#1 1058767099"/>
    </vehicle>
    <vehicle id="flow_side_road_cars_2.9" type="car" depart="266.00" departLane="best" departSpeed="max">
        <route edges="761955902#2 761955902#3 150694716#12 150694716#0 150694716#1 1058767099"/>
    </vehicle>
    <vehicle id="flow_main_cars.30" type="car" depart="270.00" departLane="best" departSpeed="max">
        <route edges="761955902#2 761955902#3 150694716#12 150694716#0 150694716#1 150694716#2 150694716#3 150694716#4 704227856#0"/>
    </vehicle>
    <vehicle id="flow_turning_bikes.15" type="motorcycle" depart="270.00" departLane="best" departSpeed="max">
        <route edges="527057142 150694716#6 150694716#7 150694716#8 150694716#9 150694716#10 34135098#0 34135098#1"/>
    </vehicle>
    <vehicle id="flow_side_road_bikes.23" type="motorcycle" depart="276.00" departLane="best" departSpeed="max">
        <route edges="761955902#2 761955902#3 150694716#12 150694716#0 150694716#1 1058767099"/>
    </vehicle>
    <vehicle id="flow_main_cars.31" type="car" depart="279.00" departLane="best" departSpeed="max">
        <route edges="761955902#2 761955902#3 150694716#12 150694716#0 150694716#1 150694716#2 150694716#3 150694716#4 704227856#0"/>
    </vehicle>
    <vehicle id="flow_main_cars.32" type="car" depart="288.00" departLane="best" departSpeed="max">
        <route edges="761955902#2 761955902#3 150694716#12 150694716#0 150694716#1 150694716#2 150694716#3 150694716#4 704227856#0"/>
    </vehicle>
    <vehicle id="flow_side_road_bikes.24" type="motorcycle" depart="288.00" departLane="best" departSpeed="max">
        <route edges="761955902#2 761955902#3 150694716#12 150694716#0 150694716#1 1058767099"/>
    </vehicle>
    <vehicle id="flow_turning_bikes.16" type="motorcycle" depart="288.00" departLane="best" departSpeed="max">
        <route edges="527057142 150694716#6 150694716#7 150694716#8 150694716#9 150694716#10 34135098#0 34135098#1"/>
    </vehicle>
    <vehicle id="flow_side_road_cars_1.10" type="car" depart="290.00" departLane="best" departSpeed="max">
        <route edges="761955902#2 761955902#3 150694716#12 150694716#0 150694716#1 1058767099"/>
    </vehicle>
    <vehicle id="flow_side_road_cars_2.10" type="car" depart="290.00" departLane="best" departSpeed="max">
        <route edges="761955902#2 761955902#3 150694716#12 150694716#0 150694716#1 1058767099"/>
    </vehicle>
    <vehicle id="flow_main_cars.33" type="car" depart="297.00" departLane="best" departSpeed="max">
        <route edges="761955902#2 761955902#3 150694716#12 150694716#0 150694716#1 150694716#2 150694716#3 150694716#4 704227856#0"/>
    </vehicle>
    <vehicle id="flow_side_road_bikes.25" type="motorcycle" depart="300.00" departLane="best" departSpeed="max">
        <route edges="761955902#2 761955902#3 150694716#12 150694716#0 150694716#1 1058767099"/>
    </vehicle>
    <vehicle id="flow_main_cars.34" type="car" depart="306.00" departLane="best" departSpeed="max">
        <route edges="761955902#2 761955902#3 150694716#12 150694716#0 150694716#1 150694716#2 150694716#3 150694716#4 704227856#0"/>
    </vehicle>
    <vehicle id="flow_turning_bikes.17" type="motorcycle" depart="306.00" departLane="best" departSpeed="max">
        <route edges="527057142 150694716#6 150694716#7 150694716#8 150694716#9 150694716#10 34135098#0 34135098#1"/>
    </vehicle>
    <vehicle id="flow_side_road_bikes.26" type="motorcycle" depart="312.00" departLane="best" departSpeed="max">
        <route edges="761955902#2 761955902#3 150694716#12 150694716#0 150694716#1 1058767099"/>
    </vehicle>
    <vehicle id="flow_side_road_cars_1.11" type="car" depart="314.00" departLane="best" departSpeed="max">
        <route edges="761955902#2 761955902#3 150694716#12 150694716#0 150694716#1 1058767099"/>
    </vehicle>
    <vehicle id="flow_side_road_cars_2.11" type="car" depart="314.00" departLane="best" departSpeed="max">
        <route edges="761955902#2 761955902#3 150694716#12 150694716#0 150694716#1 1058767099"/>
    </vehicle>
    <vehicle id="flow_main_cars.35" type="car" depart="315.00" departLane="best" departSpeed="max">
        <route edges="761955902#2 761955902#3 150694716#12 150694716#0 150694716#1 150694716#2 150694716#3 150694716#4 704227856#0"/>
    </vehicle>
    <vehicle id="flow_main_cars.36" type="car" depart="324.00" departLane="best" departSpeed="max">
        <route edges="761955902#2 761955902#3 150694716#12 150694716#0 150694716#1 150694716#2 150694716#3 150694716#4 704227856#0"/>
    </vehicle>
    <vehicle id="flow_side_road_bikes.27" type="motorcycle" depart="324.00" departLane="best" departSpeed="max">
        <route edges="761955902#2 761955902#3 150694716#12 150694716#0 150694716#1 1058767099"/>
    </vehicle>
    <vehicle id="flow_turning_bikes.18" type="motorcycle" depart="324.00" departLane="best" departSpeed="max">
        <route edges="527057142 150694716#6 150694716#7 150694716#8 150694716#9 150694716#10 34135098#0 34135098#1"/>
    </vehicle>
    <vehicle id="flow_main_cars.37" type="car" depart="333.00" departLane="best" departSpeed="max">
        <route edges="761955902#2 761955902#3 150694716#12 150694716#0 150694716#1 150694716#2 150694716#3 150694716#4 704227856#0"/>
    </vehicle>
    <vehicle id="flow_side_road_bikes.28" type="motorcycle" depart="336.00" departLane="best" departSpeed="max">
        <route edges="761955902#2 761955902#3 150694716#12 150694716#0 150694716#1 1058767099"/>
    </vehicle>
    <vehicle id="flow_main_trucks.4" type="truck" depart="338.00" departLane="best" departSpeed="max">
        <route edges="761955902#2 761955902#3 150694716#12 150694716#0 150694716#1 150694716#2 150694716#3 150694716#4 704227856#0"/>
    </vehicle>
    <vehicle id="flow_side_road_cars_1.12" type="car" depart="338.00" departLane="best" departSpeed="max">
        <route edges="761955902#2 761955902#3 150694716#12 150694716#0 150694716#1 1058767099"/>
    </vehicle>
    <vehicle id="flow_side_road_cars_2.12" type="car" depart="338.00" departLane="best" departSpeed="max">
        <route edges="761955902#2 761955902#3 150694716#12 150694716#0 150694716#1 1058767099"/>
    </vehicle>
    <vehicle id="flow_turning_buses.2" type="bus" depart="340.00" departLane="best" departSpeed="max">
        <route edges="527057142 150694716#6 150694716#7 150694716#8 150694716#9 150694716#10 34135098#0 34135098#1"/>
    </vehicle>
    <vehicle id="flow_main_cars.38" type="car" depart="342.00" departLane="best" departSpeed="max">
        <route edges="761955902#2 761955902#3 150694716#12 150694716#0 150694716#1 150694716#2 150694716#3 150694716#4 704227856#0"/>
    </vehicle>
    <vehicle id="flow_turning_bikes.19" type="motorcycle" depart="342.00" departLane="best" departSpeed="max">
        <route edges="527057142 150694716#6 150694716#7 150694716#8 150694716#9 150694716#10 34135098#0 34135098#1"/>
    </vehicle>