<?xml version="1.0" encoding="UTF-8"?>

<!-- generated on 2025-11-02 10:07:11 by Eclipse SUMO netedit Version 1.24.0
<neteditConfiguration xmlns:xsi="http://www.w3.org/2001/XMLSchema-instance" xsi:noNamespaceSchemaLocation="http://sumo.dlr.de/xsd/neteditConfiguration.xsd">

    <input>
        <sumo-net-file value="C:\SUMO_Projects\SVNIT\test.net.xml"/>
    </input>

    <output>
        <output-file value="C:\SUMO_Projects\SVNIT\test.net.xml"/>
    </output>

    <processing>
        <geometry.min-radius.fix.railways value="false"/>
        <geometry.avoid-overlap value="false"/>
        <geometry.max-grade.fix value="false"/>
        <offset.disable-normalization value="true"/>
        <lefthand value="0"/>
    </processing>

    <junctions>
        <no-turnarounds value="true"/>
        <junctions.corner-detail value="5"/>
        <junctions.limit-turn-speed value="5.50"/>
        <rectangular-lane-cut value="0"/>
    </junctions>

    <pedestrian>
        <walkingareas value="0"/>
    </pedestrian>

</neteditConfiguration>
-->

<net version="1.20" junctionCornerDetail="5" limitTurnSpeed="5.50" avoidOverlap="0" xmlns:xsi="http://www.w3.org/2001/XMLSchema-instance" xsi:noNamespaceSchemaLocation="http://sumo.dlr.de/xsd/net_file.xsd">

    <location netOffset="-266856.18,-2339466.73" convBoundary="0.00,0.00,3560.47,3295.21" origBoundary="72.754998,21.141601,72.788850,21.171711" projParameter="+proj=utm +zone=43 +ellps=WGS84 +datum=WGS84 +units=m +no_defs"/>

    <type id="highway.footway" priority="1" numLanes="1" speed="2.78" allow="pedestrian" oneway="1" width="2.00"/>
    <type id="highway.living_street" priority="2" numLanes="1" speed="2.78" disallow="tram rail_urban rail rail_electric rail_fast ship container cable_car subway aircraft wheelchair scooter drone" oneway="0"/>
    <type id="highway.primary" priority="12" numLanes="2" speed="27.78" disallow="tram rail_urban rail rail_electric rail_fast ship container cable_car subway aircraft wheelchair scooter drone" oneway="0"/>
    <type id="highway.primary_link" priority="7" numLanes="1" speed="22.22" disallow="tram rail_urban rail rail_electric rail_fast ship container cable_car subway aircraft wheelchair scooter drone" oneway="0"/>
    <type id="highway.residential" priority="3" numLanes="1" speed="13.89" disallow="tram rail_urban rail rail_electric rail_fast ship container cable_car subway aircraft wheelchair scooter drone" oneway="0"/>
    <type id="highway.secondary" priority="11" numLanes="1" speed="27.78" disallow="tram rail_urban rail rail_electric rail_fast ship container cable_car subway aircraft wheelchair scooter drone" oneway="0"/>
    <type id="highway.service" priority="1" numLanes="1" speed="5.56" allow="pedestrian delivery bicycle" oneway="0"/>
    <type id="highway.tertiary" priority="10" numLanes="1" speed="22.22" disallow="tram rail_urban rail rail_electric rail_fast ship container cable_car subway aircraft wheelchair scooter drone" oneway="0"/>

    <edge id=":10133682184_0" function="internal">
        <lane id=":10133682184_0_0" index="0" disallow="tram rail_urban rail rail_electric rail_fast ship container cable_car subway aircraft wheelchair scooter drone" speed="27.78" length="6.14" shape="3148.27,2855.51 3149.77,2856.41 3150.76,2857.14 3151.81,2857.73 3153.46,2858.21"/>
        <lane id=":10133682184_0_1" index="1" disallow="tram rail_urban rail rail_electric rail_fast ship container cable_car subway aircraft wheelchair scooter drone" speed="27.78" length="6.14" shape="3146.80,2858.35 3148.42,2859.33 3149.49,2860.11 3150.61,2860.74 3152.40,2861.25"/>
    </edge>
    <edge id=":10133682184_2" function="internal">
        <lane id=":10133682184_2_0" index="0" disallow="tram rail_urban rail rail_electric rail_fast ship container cable_car subway aircraft wheelchair scooter drone" speed="5.48" length="6.78" shape="3146.80,2858.35 3147.60,2859.17 3147.69,2860.44 3147.06,2862.15 3145.71,2864.30"/>
    </edge>
    <edge id=":10232936561_0" function="internal">
        <lane id=":10232936561_0_0" index="0" allow="pedestrian delivery bicycle" speed="3.65" length="4.67" shape="2876.73,2858.49 2875.49,2857.75 2875.05,2856.97 2875.41,2856.15 2876.57,2855.29"/>
    </edge>
    <edge id=":11240998122_0" function="internal">
        <lane id=":11240998122_0_0" index="0" allow="pedestrian delivery bicycle" speed="5.56" length="9.10" shape="3077.78,2851.68 3076.80,2854.19 3076.18,2855.94 3075.67,2857.71 3074.97,2860.33"/>
    </edge>
    <edge id=":11240998122_1" function="internal">
        <lane id=":11240998122_1_0" index="0" allow="pedestrian delivery bicycle" speed="5.56" length="10.85" shape="3077.78,2851.68 3076.27,2854.33 3074.32,2855.77 3071.94,2855.99 3069.13,2854.99"/>
    </edge>
    <edge id=":11240998122_2" function="internal">
        <lane id=":11240998122_2_0" index="0" allow="pedestrian delivery bicycle" speed="3.65" length="4.68" shape="3077.78,2851.68 3076.63,2852.54 3075.74,2852.65 3075.12,2852.00 3074.77,2850.60"/>
    </edge>
    <edge id=":11240998122_3" function="internal">
        <lane id=":11240998122_3_0" index="0" allow="pedestrian delivery bicycle" speed="4.95" length="5.18" shape="3070.63,2852.17 3071.98,2852.65 3073.11,2852.54 3074.05,2851.86 3074.77,2850.60"/>
    </edge>
    <edge id=":11240998122_4" function="internal">
        <lane id=":11240998122_4_0" index="0" allow="pedestrian delivery bicycle" speed="5.56" length="10.07" shape="3070.63,2852.17 3073.04,2853.81 3074.57,2855.72 3075.21,2857.89 3074.97,2860.33"/>
    </edge>
    <edge id=":11240998122_5" function="internal">
        <lane id=":11240998122_5_0" index="0" allow="pedestrian delivery bicycle" speed="3.65" length="4.67" shape="3070.63,2852.17 3071.31,2853.44 3071.29,2854.33 3070.56,2854.85 3069.13,2854.99"/>
    </edge>
    <edge id=":11240998122_6" function="internal">
        <lane id=":11240998122_6_0" index="0" allow="pedestrian delivery bicycle" speed="5.56" length="5.74" shape="3071.88,2859.51 3071.97,2858.22 3071.55,2857.04 3070.60,2855.96 3069.13,2854.99"/>
    </edge>
    <edge id=":11240998122_7" function="internal">
        <lane id=":11240998122_7_0" index="0" allow="pedestrian delivery bicycle" speed="5.56" length="9.37" shape="3071.88,2859.51 3072.59,2856.82 3073.12,2854.99 3073.75,2853.19 3074.77,2850.60"/>
    </edge>
    <edge id=":11240998122_8" function="internal">
        <lane id=":11240998122_8_0" index="0" allow="pedestrian delivery bicycle" speed="3.65" length="4.67" shape="3071.88,2859.51 3072.96,2858.55 3073.83,2858.37 3074.51,2858.96 3074.97,2860.33"/>
    </edge>
    <edge id=":11328777583_0" function="internal">
        <lane id=":11328777583_0_0" index="0" disallow="tram rail_urban rail rail_electric rail_fast ship container cable_car subway aircraft wheelchair scooter drone" speed="22.22" length="9.41" shape="3101.77,2849.77 3110.60,2853.04"/>
    </edge>
    <edge id=":11328777583_1" function="internal">
        <lane id=":11328777583_1_0" index="0" allow="pedestrian delivery bicycle" speed="5.99" length="8.02" shape="3101.77,2849.77 3104.32,2850.96 3105.92,2852.27 3106.58,2853.70 3106.28,2855.24"/>
    </edge>
    <edge id=":11328777583_2" function="internal">
        <lane id=":11328777583_2_0" index="0" allow="pedestrian delivery bicycle" speed="6.36" length="7.92" shape="3103.40,2853.84 3104.38,2852.70 3105.90,2852.19 3107.98,2852.30 3110.60,2853.04"/>
    </edge>
    <edge id=":11328777583_3" function="internal">
        <lane id=":11328777583_3_0" index="0" allow="pedestrian delivery bicycle" speed="3.65" length="4.67" shape="3103.40,2853.84 3104.64,2853.11 3105.54,2853.10 3106.08,2853.81 3106.28,2855.24"/>
    </edge>
    <edge id=":11328777586_0" function="internal">
        <lane id=":11328777586_0_0" index="0" allow="pedestrian delivery bicycle" speed="3.65" length="4.67" shape="3073.38,2923.58 3072.23,2924.45 3071.34,2924.56 3070.72,2923.92 3070.36,2922.52"/>
    </edge>
    <edge id=":12874725736_0" function="internal">
        <lane id=":12874725736_0_0" index="0" allow="pedestrian delivery bicycle" speed="5.05" length="5.01" shape="2988.58,2856.32 2988.32,2854.97 2987.69,2854.03 2986.69,2853.49 2985.33,2853.36"/>
    </edge>
    <edge id=":12874725736_1" function="internal">
        <lane id=":12874725736_1_0" index="0" allow="pedestrian delivery bicycle" speed="5.56" length="10.17" shape="2988.58,2856.32 2988.83,2853.55 2989.92,2851.52 2991.83,2850.24 2994.57,2849.72"/>
    </edge>
    <edge id=":12874725736_2" function="internal">
        <lane id=":12874725736_2_0" index="0" allow="pedestrian delivery bicycle" speed="3.65" length="4.67" shape="2988.58,2856.32 2989.32,2855.08 2990.10,2854.64 2990.92,2855.00 2991.77,2856.16"/>
    </edge>
    <edge id=":12874725736_3" function="internal">
        <lane id=":12874725736_3_0" index="0" allow="pedestrian delivery bicycle" speed="5.04" length="5.00" shape="2994.72,2852.91 2993.37,2853.17 2992.43,2853.80 2991.90,2854.80 2991.77,2856.16"/>
    </edge>
    <edge id=":12874725736_4" function="internal">
        <lane id=":12874725736_4_0" index="0" allow="pedestrian delivery bicycle" speed="5.56" length="9.40" shape="2994.72,2852.91 2985.33,2853.36"/>
    </edge>
    <edge id=":12874725736_5" function="internal">
        <lane id=":12874725736_5_0" index="0" allow="pedestrian delivery bicycle" speed="3.65" length="4.67" shape="2994.72,2852.91 2993.48,2852.17 2993.05,2851.39 2993.41,2850.57 2994.57,2849.72"/>
    </edge>
    <edge id=":12874725736_6" function="internal">
        <lane id=":12874725736_6_0" index="0" allow="pedestrian delivery bicycle" speed="5.56" length="9.40" shape="2985.18,2850.16 2994.57,2849.72"/>
    </edge>
    <edge id=":12874725736_7" function="internal">
        <lane id=":12874725736_7_0" index="0" allow="pedestrian delivery bicycle" speed="5.56" length="10.16" shape="2985.18,2850.16 2987.95,2850.43 2989.97,2851.51 2991.24,2853.43 2991.77,2856.16"/>
    </edge>
    <edge id=":12874725736_8" function="internal">
        <lane id=":12874725736_8_0" index="0" allow="pedestrian delivery bicycle" speed="3.65" length="4.67" shape="2985.18,2850.16 2986.42,2850.90 2986.85,2851.69 2986.49,2852.50 2985.33,2853.36"/>
    </edge>
    <edge id=":12874725738_0" function="internal">
        <lane id=":12874725738_0_0" index="0" allow="pedestrian delivery bicycle" speed="5.56" length="9.40" shape="2996.64,2903.76 2987.24,2904.00"/>
    </edge>
    <edge id=":12874725738_1" function="internal">
        <lane id=":12874725738_1_0" index="0" allow="pedestrian delivery bicycle" speed="5.56" length="10.20" shape="2996.64,2903.76 2993.86,2903.43 2991.85,2902.30 2990.63,2900.35 2990.18,2897.58"/>
    </edge>
    <edge id=":12874725738_2" function="internal">
        <lane id=":12874725738_2_0" index="0" allow="pedestrian delivery bicycle" speed="3.65" length="4.67" shape="2996.64,2903.76 2995.42,2902.99 2994.99,2902.20 2995.37,2901.39 2996.55,2900.56"/>
    </edge>
    <edge id=":12874725738_3" function="internal">
        <lane id=":12874725738_3_0" index="0" allow="pedestrian delivery bicycle" speed="5.03" length="5.01" shape="2993.38,2897.53 2993.60,2898.88 2994.20,2899.84 2995.19,2900.40 2996.55,2900.56"/>
    </edge>
    <edge id=":12874725738_4" function="internal">
        <lane id=":12874725738_4_0" index="0" allow="pedestrian delivery bicycle" speed="5.56" length="10.16" shape="2993.38,2897.53 2993.04,2900.30 2991.91,2902.30 2989.97,2903.54 2987.24,2904.00"/>
    </edge>
    <edge id=":12874725738_5" function="internal">
        <lane id=":12874725738_5_0" index="0" allow="pedestrian delivery bicycle" speed="3.65" length="4.67" shape="2993.38,2897.53 2992.61,2898.74 2991.81,2899.16 2991.01,2898.77 2990.18,2897.58"/>
    </edge>
    <edge id=":12874725738_6" function="internal">
        <lane id=":12874725738_6_0" index="0" allow="pedestrian delivery bicycle" speed="5.07" length="5.03" shape="2987.16,2900.80 2988.50,2900.57 2989.46,2899.96 2990.02,2898.96 2990.18,2897.58"/>
    </edge>
    <edge id=":12874725738_7" function="internal">
        <lane id=":12874725738_7_0" index="0" allow="pedestrian delivery bicycle" speed="5.56" length="9.40" shape="2987.16,2900.80 2996.55,2900.56"/>
    </edge>
    <edge id=":12874725738_8" function="internal">
        <lane id=":12874725738_8_0" index="0" allow="pedestrian delivery bicycle" speed="3.65" length="4.67" shape="2987.16,2900.80 2988.38,2901.57 2988.80,2902.36 2988.42,2903.17 2987.24,2904.00"/>
    </edge>
    <edge id=":12874725739_0" function="internal">
        <lane id=":12874725739_0_0" index="0" allow="pedestrian delivery bicycle" speed="5.04" length="5.00" shape="2950.51,2858.10 2950.25,2856.76 2949.62,2855.82 2948.63,2855.28 2947.26,2855.15"/>
    </edge>
    <edge id=":12874725739_1" function="internal">
        <lane id=":12874725739_1_0" index="0" allow="pedestrian delivery bicycle" speed="5.56" length="10.16" shape="2950.51,2858.10 2950.77,2855.33 2951.86,2853.31 2953.77,2852.03 2956.50,2851.51"/>
    </edge>
    <edge id=":12874725739_2" function="internal">
        <lane id=":12874725739_2_0" index="0" allow="pedestrian delivery bicycle" speed="3.65" length="4.67" shape="2950.51,2858.10 2951.25,2856.87 2952.03,2856.43 2952.85,2856.80 2953.70,2857.96"/>
    </edge>
    <edge id=":12874725739_3" function="internal">
        <lane id=":12874725739_3_0" index="0" allow="pedestrian delivery bicycle" speed="5.05" length="5.01" shape="2956.65,2854.71 2955.31,2854.97 2954.37,2855.59 2953.83,2856.59 2953.70,2857.96"/>
    </edge>
    <edge id=":12874725739_4" function="internal">
        <lane id=":12874725739_4_0" index="0" allow="pedestrian delivery bicycle" speed="5.56" length="9.40" shape="2956.65,2854.71 2947.26,2855.15"/>
    </edge>
    <edge id=":12874725739_5" function="internal">
        <lane id=":12874725739_5_0" index="0" allow="pedestrian delivery bicycle" speed="3.65" length="4.67" shape="2956.65,2854.71 2955.42,2853.96 2954.98,2853.18 2955.34,2852.37 2956.50,2851.51"/>
    </edge>
    <edge id=":12874725739_6" function="internal">
        <lane id=":12874725739_6_0" index="0" allow="pedestrian delivery bicycle" speed="5.56" length="9.40" shape="2947.11,2851.95 2956.50,2851.51"/>
    </edge>
    <edge id=":12874725739_7" function="internal">
        <lane id=":12874725739_7_0" index="0" allow="pedestrian delivery bicycle" speed="5.56" length="10.17" shape="2947.11,2851.95 2949.89,2852.22 2951.91,2853.31 2953.18,2855.22 2953.70,2857.96"/>
    </edge>
    <edge id=":12874725739_8" function="internal">
        <lane id=":12874725739_8_0" index="0" allow="pedestrian delivery bicycle" speed="3.65" length="4.67" shape="2947.11,2851.95 2948.35,2852.70 2948.79,2853.48 2948.43,2854.29 2947.26,2855.15"/>
    </edge>
    <edge id=":12874725740_0" function="internal">
        <lane id=":12874725740_0_0" index="0" allow="pedestrian delivery bicycle" speed="5.56" length="9.40" shape="2959.18,2904.75 2949.78,2905.00"/>
    </edge>
    <edge id=":12874725740_1" function="internal">
        <lane id=":12874725740_1_0" index="0" allow="pedestrian delivery bicycle" speed="5.56" length="10.17" shape="2959.18,2904.75 2956.47,2904.42 2954.48,2903.28 2953.21,2901.33 2952.66,2898.56"/>
    </edge>
    <edge id=":12874725740_2" function="internal">
        <lane id=":12874725740_2_0" index="0" allow="pedestrian delivery bicycle" speed="3.65" length="4.67" shape="2959.18,2904.75 2957.96,2903.98 2957.54,2903.19 2957.92,2902.38 2959.10,2901.55"/>
    </edge>
    <edge id=":12874725740_3" function="internal">
        <lane id=":12874725740_3_0" index="0" allow="pedestrian delivery bicycle" speed="5.15" length="5.14" shape="2955.86,2898.37 2956.13,2899.79 2956.77,2900.79 2957.75,2901.38 2959.10,2901.55"/>
    </edge>
    <edge id=":12874725740_4" function="internal">
        <lane id=":12874725740_4_0" index="0" allow="pedestrian delivery bicycle" speed="5.56" length="10.33" shape="2955.86,2898.37 2955.62,2901.21 2954.53,2903.25 2952.59,2904.52 2949.78,2905.00"/>
    </edge>
    <edge id=":12874725740_5" function="internal">
        <lane id=":12874725740_5_0" index="0" allow="pedestrian delivery bicycle" speed="3.65" length="4.67" shape="2955.86,2898.37 2955.13,2899.62 2954.36,2900.06 2953.53,2899.71 2952.66,2898.56"/>
    </edge>
    <edge id=":12874725740_6" function="internal">
        <lane id=":12874725740_6_0" index="0" allow="pedestrian delivery bicycle" speed="5.00" length="5.04" shape="2949.70,2901.80 2951.07,2901.56 2952.02,2900.95 2952.55,2899.95 2952.66,2898.56"/>
    </edge>
    <edge id=":12874725740_7" function="internal">
        <lane id=":12874725740_7_0" index="0" allow="pedestrian delivery bicycle" speed="5.56" length="9.40" shape="2949.70,2901.80 2959.10,2901.55"/>
    </edge>
    <edge id=":12874725740_8" function="internal">
        <lane id=":12874725740_8_0" index="0" allow="pedestrian delivery bicycle" speed="3.65" length="4.67" shape="2949.70,2901.80 2950.92,2902.57 2951.34,2903.35 2950.96,2904.17 2949.78,2905.00"/>
    </edge>
    <edge id=":12874725742_0" function="internal">
        <lane id=":12874725742_0_0" index="0" allow="pedestrian delivery bicycle" speed="5.06" length="5.02" shape="3036.51,2905.84 3036.28,2904.47 3035.66,2903.51 3034.68,2902.95 3033.32,2902.79"/>
    </edge>
    <edge id=":12874725742_1" function="internal">
        <lane id=":12874725742_1_0" index="0" allow="pedestrian delivery bicycle" speed="5.56" length="10.19" shape="3036.51,2905.84 3036.82,2903.06 3037.94,2901.05 3039.88,2899.81 3042.63,2899.34"/>
    </edge>
    <edge id=":12874725742_2" function="internal">
        <lane id=":12874725742_2_0" index="0" allow="pedestrian delivery bicycle" speed="3.65" length="4.67" shape="3036.51,2905.84 3037.27,2904.61 3038.06,2904.19 3038.87,2904.56 3039.71,2905.73"/>
    </edge>
    <edge id=":12874725742_3" function="internal">
        <lane id=":12874725742_3_0" index="0" allow="pedestrian delivery bicycle" speed="5.03" length="5.01" shape="3042.72,2902.54 3041.36,2902.77 3040.41,2903.38 3039.86,2904.37 3039.71,2905.73"/>
    </edge>
    <edge id=":12874725742_4" function="internal">
        <lane id=":12874725742_4_0" index="0" allow="pedestrian delivery bicycle" speed="5.56" length="9.40" shape="3042.72,2902.54 3033.32,2902.79"/>
    </edge>
    <edge id=":12874725742_5" function="internal">
        <lane id=":12874725742_5_0" index="0" allow="pedestrian delivery bicycle" speed="3.65" length="4.67" shape="3042.72,2902.54 3041.50,2901.78 3041.08,2900.99 3041.45,2900.18 3042.63,2899.34"/>
    </edge>
    <edge id=":12874725742_6" function="internal">
        <lane id=":12874725742_6_0" index="0" allow="pedestrian delivery bicycle" speed="5.56" length="9.40" shape="3033.24,2899.59 3042.63,2899.34"/>
    </edge>
    <edge id=":12874725742_7" function="internal">
        <lane id=":12874725742_7_0" index="0" allow="pedestrian delivery bicycle" speed="5.56" length="10.16" shape="3033.24,2899.59 3035.99,2899.92 3037.99,2901.05 3039.23,2902.99 3039.71,2905.73"/>
    </edge>
    <edge id=":12874725742_8" function="internal">
        <lane id=":12874725742_8_0" index="0" allow="pedestrian delivery bicycle" speed="3.65" length="4.67" shape="3033.24,2899.59 3034.46,2900.36 3034.88,2901.15 3034.50,2901.96 3033.32,2902.79"/>
    </edge>
    <edge id=":12874725743_0" function="internal">
        <lane id=":12874725743_0_0" index="0" allow="pedestrian delivery bicycle" speed="3.65" length="4.67" shape="3041.07,2948.07 3040.31,2949.29 3039.52,2949.72 3038.71,2949.35 3037.87,2948.17"/>
    </edge>
    <edge id=":12899329084_0" function="internal">
        <lane id=":12899329084_0_0" index="0" disallow="tram rail_urban rail rail_electric rail_fast ship container cable_car subway aircraft wheelchair scooter drone" speed="6.45" length="9.03" shape="3340.08,2970.68 3338.77,2972.79 3338.47,2974.80 3339.17,2976.71 3340.88,2978.51"/>
    </edge>
    <edge id=":12899329084_1" function="internal">
        <lane id=":12899329084_1_0" index="0" disallow="tram rail_urban rail rail_electric rail_fast ship container cable_car subway aircraft wheelchair scooter drone" speed="3.65" length="4.67" shape="3340.08,2970.68 3338.70,2971.08 3337.83,2970.88 3337.47,2970.06 3337.63,2968.62"/>
    </edge>
    <edge id=":12899329084_2" function="internal">
        <lane id=":12899329084_2_0" index="0" disallow="tram rail_urban rail rail_electric rail_fast ship container cable_car subway aircraft wheelchair scooter drone" speed="6.62" length="9.17" shape="3329.59,2969.56 3331.73,2970.80 3333.78,2971.05 3335.75,2970.33 3337.63,2968.62"/>
    </edge>
    <edge id=":12899329084_3" function="internal">
        <lane id=":12899329084_3_0" index="0" disallow="tram rail_urban rail rail_electric rail_fast ship container cable_car subway aircraft wheelchair scooter drone" speed="22.22" length="14.40" shape="3329.59,2969.56 3340.88,2978.51"/>
    </edge>
    <edge id=":12899329085_0" function="internal">
        <lane id=":12899329085_0_0" index="0" disallow="tram rail_urban rail rail_electric rail_fast ship container cable_car subway aircraft wheelchair scooter drone" speed="27.78" length="9.40" shape="3341.39,2959.21 3348.68,2965.15"/>
        <lane id=":12899329085_0_1" index="1" disallow="tram rail_urban rail rail_electric rail_fast ship container cable_car subway aircraft wheelchair scooter drone" speed="27.78" length="9.40" shape="3339.37,2961.69 3346.66,2967.63"/>
    </edge>
    <edge id=":12899329085_2" function="internal">
        <lane id=":12899329085_2_0" index="0" disallow="tram rail_urban rail rail_electric rail_fast ship container cable_car subway aircraft wheelchair scooter drone" speed="6.07" length="7.80" shape="3339.37,2961.69 3341.39,2963.59 3342.54,2965.30 3342.82,2966.80 3342.23,2968.11"/>
    </edge>
    <edge id=":12899329085_3" function="internal">
        <lane id=":12899329085_3_0" index="0" disallow="tram rail_urban rail rail_electric rail_fast ship container cable_car subway aircraft wheelchair scooter drone" speed="6.12" length="7.78" shape="3339.78,2966.06 3340.97,2965.26 3342.51,2965.25 3344.40,2966.04 3346.66,2967.63"/>
    </edge>
    <edge id=":12899329085_4" function="internal">
        <lane id=":12899329085_4_0" index="0" disallow="tram rail_urban rail rail_electric rail_fast ship container cable_car subway aircraft wheelchair scooter drone" speed="3.65" length="4.67" shape="3339.78,2966.06 3341.17,2965.65 3342.04,2965.86 3342.39,2966.68 3342.23,2968.11"/>
    </edge>
    <edge id=":1635806094_0" function="internal">
        <lane id=":1635806094_0_0" index="0" disallow="tram rail_urban rail rail_electric rail_fast ship container cable_car subway aircraft wheelchair scooter drone" speed="11.46" length="9.03" shape="3163.43,2824.02 3161.00,2823.35 3159.26,2823.08 3157.53,2823.29 3155.16,2824.06"/>
        <lane id=":1635806094_0_1" index="1" disallow="tram rail_urban rail rail_electric rail_fast ship container cable_car subway aircraft wheelchair scooter drone" speed="12.05" length="9.03" shape="3163.31,2820.66 3160.59,2819.96 3158.64,2819.78 3156.70,2820.14 3154.05,2821.06"/>
    </edge>
    <edge id=":1635806094_2" function="internal">
        <lane id=":1635806094_2_0" index="0" disallow="tram rail_urban rail rail_electric rail_fast ship container cable_car subway aircraft wheelchair scooter drone" speed="10.70" length="9.05" shape="3159.81,2814.54 3158.60,2816.96 3157.67,2818.66 3156.37,2819.94 3154.05,2821.06"/>
    </edge>
    <edge id=":1635806136_0" function="internal">
        <lane id=":1635806136_0_0" index="0" disallow="tram rail_urban rail rail_electric rail_fast ship container cable_car subway aircraft wheelchair scooter drone" speed="8.07" length="8.41" shape="3184.03,2843.01 3181.26,2841.90 3179.20,2840.77 3177.87,2839.62 3177.26,2838.45"/>
        <lane id=":1635806136_0_1" index="1" disallow="tram rail_urban rail rail_electric rail_fast ship container cable_car subway aircraft wheelchair scooter drone" speed="6.66" length="5.53" shape="3185.09,2839.99 3183.08,2839.23 3181.61,2838.54 3180.68,2837.93 3180.31,2837.40"/>
    </edge>
    <edge id=":1635806136_2" function="internal">
        <lane id=":1635806136_2_0" index="0" disallow="tram rail_urban rail rail_electric rail_fast ship container cable_car subway aircraft wheelchair scooter drone" speed="11.36" length="7.50" shape="3177.13,2845.22 3177.75,2843.29 3177.90,2841.89 3177.70,2840.46 3177.26,2838.45"/>
        <lane id=":1635806136_2_1" index="1" disallow="tram rail_urban rail rail_electric rail_fast ship container cable_car subway aircraft wheelchair scooter drone" speed="27.78" length="7.50" shape="3180.40,2845.42 3180.60,2843.03 3180.75,2841.38 3180.71,2839.75 3180.31,2837.40"/>
    </edge>
    <edge id=":1635806162_0" function="internal">
        <lane id=":1635806162_0_0" index="0" disallow="tram rail_urban rail rail_electric rail_fast ship container cable_car subway aircraft wheelchair scooter drone" speed="27.78" length="8.59" shape="3147.30,2828.24 3145.73,2830.02 3144.78,2831.34 3144.00,2832.78 3142.93,2834.91"/>
        <lane id=":1635806162_0_1" index="1" disallow="tram rail_urban rail rail_electric rail_fast ship container cable_car subway aircraft wheelchair scooter drone" speed="27.78" length="8.59" shape="3145.13,2825.87 3143.33,2827.90 3142.22,2829.39 3141.31,2831.02 3140.08,2833.45"/>
    </edge>
    <edge id=":1635806162_2" function="internal">
        <lane id=":1635806162_2_0" index="0" disallow="tram rail_urban rail rail_electric rail_fast ship container cable_car subway aircraft wheelchair scooter drone" speed="6.96" length="7.33" shape="3145.13,2825.87 3143.22,2827.77 3141.58,2829.02 3140.22,2829.63 3139.14,2829.60"/>
        <lane id=":1635806162_2_1" index="1" disallow="tram rail_urban rail rail_electric rail_fast ship container cable_car subway aircraft wheelchair scooter drone" speed="6.00" length="5.25" shape="3145.13,2825.87 3144.17,2826.63 3143.03,2827.00 3141.73,2826.99 3140.24,2826.60"/>
    </edge>
    <edge id=":1635806170_0" function="internal">
        <lane id=":1635806170_0_0" index="0" disallow="tram rail_urban rail rail_electric rail_fast ship container cable_car subway aircraft wheelchair scooter drone" speed="3.65" length="4.67" shape="3158.45,1873.79 3159.21,1875.02 3159.25,1875.91 3158.55,1876.47 3157.13,1876.71"/>
    </edge>
    <edge id=":1635806177_0" function="internal">
        <lane id=":1635806177_0_0" index="0" disallow="tram rail_urban rail rail_electric rail_fast ship container cable_car subway aircraft wheelchair scooter drone" speed="27.78" length="8.60" shape="3173.14,2853.04 3174.52,2851.06 3175.37,2849.63 3176.04,2848.11 3176.90,2845.84"/>
        <lane id=":1635806177_0_1" index="1" disallow="tram rail_urban rail rail_electric rail_fast ship container cable_car subway aircraft wheelchair scooter drone" speed="27.78" length="8.60" shape="3175.73,2854.91 3177.27,2852.72 3178.21,2851.15 3178.95,2849.46 3179.89,2846.96"/>
    </edge>
    <edge id=":1635806177_2" function="internal">
        <lane id=":1635806177_2_0" index="0" disallow="tram rail_urban rail rail_electric rail_fast ship container cable_car subway aircraft wheelchair scooter drone" speed="6.55" length="7.55" shape="3175.73,2854.91 3177.43,2852.82 3178.98,2851.47 3180.38,2850.86 3181.64,2850.98"/>
        <lane id=":1635806177_2_1" index="1" disallow="tram rail_urban rail rail_electric rail_fast ship container cable_car subway aircraft wheelchair scooter drone" speed="5.57" length="5.21" shape="3175.73,2854.91 3176.63,2854.01 3177.71,2853.54 3178.97,2853.52 3180.42,2853.93"/>
    </edge>
    <edge id=":1635806190_0" function="internal">
        <lane id=":1635806190_0_0" index="0" disallow="tram rail_urban rail rail_electric rail_fast ship container cable_car subway aircraft wheelchair scooter drone" speed="15.30" length="9.17" shape="3154.97,2824.13 3152.53,2824.92 3150.81,2825.48 3149.30,2826.33 3147.47,2828.05"/>
        <lane id=":1635806190_0_1" index="1" disallow="tram rail_urban rail rail_electric rail_fast ship container cable_car subway aircraft wheelchair scooter drone" speed="16.24" length="9.17" shape="3153.86,2821.13 3151.11,2822.03 3149.17,2822.66 3147.46,2823.64 3145.40,2825.58"/>
    </edge>
    <edge id=":1635806190_2" function="internal">
        <lane id=":1635806190_2_0" index="0" disallow="tram rail_urban rail rail_electric rail_fast ship container cable_car subway aircraft wheelchair scooter drone" speed="8.55" length="7.86" shape="3153.86,2821.13 3152.49,2820.81 3150.32,2819.74 3148.16,2818.51 3146.83,2817.71"/>
    </edge>
    <edge id=":1635806201_0" function="internal">
        <lane id=":1635806201_0_0" index="0" disallow="tram rail_urban rail rail_electric rail_fast ship container cable_car subway aircraft wheelchair scooter drone" speed="2.78" length="8.94" shape="3334.34,2461.45 3331.98,2461.02 3329.97,2461.41 3328.31,2462.63 3326.99,2464.68"/>
    </edge>
    <edge id=":1635806201_1" function="internal">
        <lane id=":1635806201_1_0" index="0" disallow="tram rail_urban rail rail_electric rail_fast ship container cable_car subway aircraft wheelchair scooter drone" speed="2.78" length="4.67" shape="3334.34,2461.45 3333.45,2460.31 3333.33,2459.43 3333.96,2458.79 3335.35,2458.42"/>
    </edge>
    <edge id=":1635806201_2" function="internal">
        <lane id=":1635806201_2_0" index="0" disallow="tram rail_urban rail rail_electric rail_fast ship container cable_car subway aircraft wheelchair scooter drone" speed="2.78" length="8.44" shape="3332.98,2451.57 3332.25,2453.97 3332.39,2455.91 3333.43,2457.39 3335.35,2458.42"/>
    </edge>
    <edge id=":1635806201_3" function="internal">
        <lane id=":1635806201_3_0" index="0" disallow="tram rail_urban rail rail_electric rail_fast ship container cable_car subway aircraft wheelchair scooter drone" speed="2.78" length="14.41" shape="3332.98,2451.57 3326.99,2464.68"/>
    </edge>
    <edge id=":1635806207_0" function="internal">